/*--------------------------------*- C++ -*----------------------------------*\
| =========                 |                                                 |
| \\      /  F ield         | OpenFOAM: The Open Source CFD Toolbox           |
|  \\    /   O peration     | Version:  3.0.0                                 |
|   \\  /    A nd           | Web:      www.OpenFOAM.org                      |
|    \\/     M anipulation  |                                                 |
\*---------------------------------------------------------------------------*/
FoamFile
{
    version     2.0;
    format      ascii;
    class       polyBoundaryMesh;
    location    "constant/polyMesh";
    object      boundary;
}
// * * * * * * * * * * * * * * * * * * * * * * * * * * * * * * * * * * * * * //

6
(
    patch0_half0
    {
        type            cyclic;
        inGroups        1(cyclic);
        nFaces          4096;
        startFace       774144;
        matchTolerance  0.0001;
        transform       unknown;
        neighbourPatch  patch0_half1;
    }
    patch0_half1
    {
        type            cyclic;
        inGroups        1(cyclic);
        nFaces          4096;
        startFace       778240;
        matchTolerance  0.0001;
        transform       unknown;
        neighbourPatch  patch0_half0;
    }
    patch1_half0
    {
        type            cyclic;
        inGroups        1(cyclic);
        nFaces          4096;
        startFace       782336;
        matchTolerance  0.0001;
        transform       unknown;
        neighbourPatch  patch1_half1;
    }
    patch1_half1
    {
        type            cyclic;
        inGroups        1(cyclic);
        nFaces          4096;
        startFace       786432;
        matchTolerance  0.0001;
        transform       unknown;
        neighbourPatch  patch1_half0;
    }
    patch2_half0
    {
        type            cyclic;
        inGroups        1(cyclic);
        nFaces          4096;
        startFace       790528;
        matchTolerance  0.0001;
        transform       unknown;
        neighbourPatch  patch2_half1;
    }
    patch2_half1
    {
        type            cyclic;
        inGroups        1(cyclic);
        nFaces          4096;
        startFace       794624;
        matchTolerance  0.0001;
        transform       unknown;
        neighbourPatch  patch2_half0;
    }
)

// ************************************************************************* //
